     2
Dimensions = 3; PeriodicDimensions = 2; BoxShape = parallelepiped; Lengths [A] = [   2.502813,   2.502813,  29.104746]; LatticeVectors [A] =[    2.502813    0.000000    0.000000],[   -1.251407    2.167500    0.000000],[    0.000000    0.000000    0.529177]
B                  0.000000    0.000000    0.000000
N                  1.251407   -0.722500    0.000000
