     2
Dimensions = 3; PeriodicDimensions = 2; BoxShape = parallelepiped; Lengths [A] = [   2.459512,   2.459512,  21.167088]; LatticeVectors [A] =[    2.459512    0.000000    0.000000],[   -1.229756    2.130000    0.000000],[    0.000000    0.000000    0.529177]
C                  0.000000    0.000000    0.000000
C                  1.229756   -0.710000    0.000000
